OPT_V9/My_campus_w_initial_sub_3_active_28_03_15_27/powerflow_results_t3.txt
Pandapower Network Debug Info
==================================================

BUS:
       vm_pu  va_degree      p_mw    q_mvar
0   1.003596  -0.168869 -0.000751 -0.005616
1   1.004704  -0.176698 -0.000623 -0.001057
2   1.005094  -0.159318 -0.000434  0.000000
3   1.004144  -0.208999  0.000000 -0.001057
4   0.999791  -0.119643  0.000623 -0.000434
5   1.001377  -0.072597  0.000466 -0.000897
6   1.002878  -0.090048 -0.000905 -0.001057
7   1.001668  -0.148018  0.000173 -0.003668
8   1.000137  -0.055506  0.001050 -0.003790
9   0.999905   0.000043  0.010685  0.010190
10  0.999891   0.000073  0.010224  0.007490
11  0.999880   0.000129  0.013668  0.012651
12  0.999854  -0.001028  0.008891  0.007044
13  0.999835  -0.000932  0.012713  0.009072
14  0.999824  -0.000820  0.012750  0.013919
15  0.999950  -0.000106  0.000000  0.000000
16  0.999950  -0.000110  0.000000  0.000000
17  0.999859  -0.001030  0.000000  0.000000
18  0.999859  -0.001035  0.000000  0.000000
19  1.000000   0.000000 -0.032823 -0.027628
20  1.000000   0.000004  0.000000  0.000000
21  1.000000   0.000000 -0.035805 -0.025207
22  1.000000   0.000003  0.000000  0.000000
--------------------------------------------------

LINE:
       p_from_mw   q_from_mvar       p_to_mw     q_to_mvar         pl_mw       ql_mvar  i_from_ka   i_to_ka      i_ka  vm_from_pu  va_from_degree  vm_to_pu  va_to_degree  loading_percent
0   3.281276e-02  2.362809e-02 -3.281116e-02 -2.362685e-02  1.599213e-06  1.246933e-06   0.001556  0.001556  0.001556    1.000000        0.000004  0.999950     -0.000106         0.676666
1   3.579506e-02  2.120686e-02 -3.579040e-02 -2.120323e-02  4.656206e-06  3.630520e-06   0.001601  0.001601  0.001601    1.000000        0.000003  0.999859     -0.001030         0.696259
2   3.457847e-02  3.033246e-02 -3.457683e-02 -3.033118e-02  1.636220e-06  1.275787e-06   0.001771  0.001771  0.001771    0.999950       -0.000106  0.999905      0.000043         0.769790
3   8.891158e-03  7.044288e-03 -8.891113e-03 -7.044253e-03  4.451112e-08  3.470605e-08   0.000437  0.000437  0.000437    0.999859       -0.001030  0.999854     -0.001028         0.189858
4   2.546442e-02  2.299231e-02 -2.546378e-02 -2.299181e-02  6.438024e-07  5.019833e-07   0.001321  0.001321  0.001321    0.999859       -0.001030  0.999835     -0.000932         0.574229
5  -1.777309e-03 -7.705459e-03  1.806560e-03  7.728267e-03  2.925087e-05  2.280739e-05   0.011414  0.011414  0.011414    0.999950       -0.000110  1.003596     -0.168869         4.962811
6  -4.343427e-04 -1.950547e-03  4.374416e-04  1.952963e-03  3.098934e-06  2.416290e-06   0.002885  0.002885  0.002885    0.999859       -0.001035  1.001377     -0.072597         1.254232
7   1.818626e-04 -3.661071e-03 -1.727823e-04  3.668152e-03  9.080366e-06  7.080111e-06   0.005292  0.005292  0.005292    0.999859       -0.001035  1.001668     -0.148018         2.300679
8   1.677300e-03 -4.221417e-03 -1.673751e-03  4.224184e-03  3.548706e-06  2.766985e-06   0.006557  0.006557  0.006557    0.999859       -0.001035  1.000137     -0.055506         2.851027
9  -2.389193e-02 -2.014114e-02  2.389227e-02  2.014140e-02  3.377656e-07  2.633614e-07   0.001203  0.001203  0.001203    0.999891        0.000073  0.999905      0.000043         0.523000
10 -1.366801e-02 -1.265095e-02  1.366818e-02  1.265109e-02  1.696790e-07  1.323015e-07   0.000717  0.000717  0.000717    0.999880        0.000129  0.999891      0.000073         0.311710
11 -1.275037e-02 -1.391945e-02  1.275054e-02  1.391959e-02  1.743272e-07  1.359258e-07   0.000727  0.000727  0.000727    0.999824       -0.000820  0.999835     -0.000932         0.315950
12  1.057137e-03  1.057137e-03 -1.055827e-03 -1.056116e-03  1.309976e-06  1.021410e-06   0.002148  0.002148  0.002148    1.004704       -0.176698  1.003596     -0.168869         0.933813
13 -1.107975e-10  1.057136e-03  7.401270e-07 -1.056559e-03  7.400162e-07  5.770028e-07   0.001520  0.001520  0.001520    1.004144       -0.208999  1.003596     -0.168869         0.660673
14  4.342718e-04  3.242413e-11 -4.341029e-04  1.316415e-07  1.688742e-07  1.316740e-07   0.000624  0.000624  0.000624    1.005094       -0.159318  1.004704     -0.176698         0.271148
15  6.235656e-04 -4.337246e-04 -6.228638e-04  4.342718e-04  7.018149e-07  5.472166e-07   0.001096  0.001096  0.001096    1.000137       -0.055506  0.999791     -0.119643         0.476608
16  9.051966e-04  1.057136e-03 -9.035199e-04 -1.055828e-03  1.676656e-06  1.307316e-06   0.002003  0.002003  0.002003    1.002878       -0.090048  1.001377     -0.072597         0.870881
--------------------------------------------------

TRAFO:
    p_hv_mw  q_hv_mvar   p_lv_mw  q_lv_mvar    pl_mw  ql_mvar   i_hv_ka   i_lv_ka  vm_hv_pu  va_hv_degree  vm_lv_pu  va_lv_degree  loading_percent
0 -0.001767  -0.006706  0.001777   0.007705  0.00001    0.001  0.000267  0.011414  0.999950     -0.000106  0.999950     -0.000110         0.079082
1  0.001435  -0.008833 -0.001425   0.009833  0.00001    0.001  0.000345  0.014343  0.999859     -0.001030  0.999859     -0.001035         0.099371
2  0.032823   0.027628 -0.032813  -0.023628  0.00001    0.004  0.000354  0.001556  1.000000      0.000000  1.000000      0.000004         0.107257
3  0.035805   0.025207 -0.035795  -0.021207  0.00001    0.004  0.000361  0.001601  1.000000      0.000000  1.000000      0.000003         0.109470
--------------------------------------------------
